/*---------------------------------------------------------------------------*\
| =========                 |                                                 |
| \\      /  F ield         | OpenFOAM Extend Project: Open source CFD        |
|  \\    /   O peration     | Version:  1.6-ext                               |
|   \\  /    A nd           | Web:      www.extend-project.de                 |
|    \\/     M anipulation  |                                                 |
\*---------------------------------------------------------------------------*/
Build  : 1.6-ext-a0e4ecb4d630
Exec   : blockMesh
Date   : Aug 11 2013
Time   : 16:21:54
Host   : clint-Parallels-Virtual-Platform
PID    : 4774
Case   : /home/clint/OpenFOAM/clint-1.6-ext/run/solidMechanicsTutorials/icoFsiElasticNonLinULSolidFoam/HronTurekFsi/fluid
nProcs : 1
SigFpe : Enabling floating point exception trapping (FOAM_SIGFPE).

// * * * * * * * * * * * * * * * * * * * * * * * * * * * * * * * * * * * * * //
Create time

